/*--------------------------------*- C++ -*----------------------------------*\
| =========                 |                                                 |
| \\      /  F ield         | OpenFOAM: The Open Source CFD Toolbox           |
|  \\    /   O peration     | Version:  5.x                                   |
|   \\  /    A nd           | Web:      www.OpenFOAM.org                      |
|    \\/     M anipulation  |                                                 |
\*---------------------------------------------------------------------------*/
FoamFile
{
    version     2.0;
    format      ascii;
    class       polyBoundaryMesh;
    location    "constant/polyMesh";
    object      boundary;
}
// * * * * * * * * * * * * * * * * * * * * * * * * * * * * * * * * * * * * * //

6
(
    bottom
    {
        type            empty;
        inGroups        1(empty);
        nFaces          192;
        startFace       191;
    }
    top
    {
        type            empty;
        inGroups        1(empty);
        nFaces          192;
        startFace       383;
    }
    left
    {
        type            patch;
        nFaces          1;
        startFace       575;
    }
    right
    {
        type            patch;
        nFaces          1;
        startFace       576;
    }
    front
    {
        type            empty;
        inGroups        1(empty);
        nFaces          192;
        startFace       577;
    }
    back
    {
        type            empty;
        inGroups        1(empty);
        nFaces          192;
        startFace       769;
    }
)

// ************************************************************************* //
