/*--------------------------------*- C++ -*----------------------------------*\
| =========                 |                                                 |
| \\      /  F ield         | OpenFOAM: The Open Source CFD Toolbox           |
|  \\    /   O peration     | Version:  v1806                                 |
|   \\  /    A nd           | Web:      www.OpenFOAM.com                      |
|    \\/     M anipulation  |                                                 |
\*---------------------------------------------------------------------------*/
FoamFile
{
    version     2.0;
    format      ascii;
    class       dictionary;
    object      blockMeshDict;
}
// * * * * * * * * * * * * * * * * * * * * * * * * * * * * * * * * * * * * * //

scale   1;

L 16e-3;
x1 2e-6;
x2 5e-5;
x3 5e-5;
x4 5e-5;
Nt 192;

vertices
(
    (0 0 0)
    ($L 0 0)
    ($L 0.005 0)
    (0 0.005 0)
    (0 0 0.005)
    ($L 0 0.005)
    ($L 0.005 0.005)
    (0 0.005 0.005)
);


// compound grading in x-dir
posX
(
    (1 4 2)
    (2 3 4)
    (2 4 0.25)
);


blocks
(
    hex (0 1 2 3 4 5 6 7) ($Nt 1 1) simpleGrading ($posX 1 1)
);


boundary
(
    bottom
    {
        type    empty;
        faces
        (
            (1 5 4 0)
        );
    }
    top
    {
        type    empty;
        faces
        (
            (3 7 6 2)
        );
    }
    left
    {
        type    patch;
        faces
        (
            (0 4 7 3)
        );
    }
    right
    {
        type    patch;
        faces
        (
            (2 6 5 1)
        );
    }
    front
    {
        type    empty;
        faces
        (
            (4 5 6 7)
        );
    }
    back
    {
        type    empty;
        faces
        (
            (0 1 2 3)
        );
    }
);

// ************************************************************************* //
